Version 4
SHEET 1 1824 924
WIRE 240 -976 208 -976
WIRE 464 -976 432 -976
WIRE 576 -976 464 -976
WIRE 464 -944 464 -976
WIRE 576 -944 576 -976
WIRE 240 -896 208 -896
WIRE 240 -880 240 -896
WIRE 464 -848 464 -864
WIRE 576 -848 576 -880
WIRE 576 -848 464 -848
WIRE 576 -816 576 -848
WIRE -400 -352 -448 -352
WIRE -272 -352 -400 -352
WIRE -400 -256 -400 -352
WIRE -272 -256 -272 -352
WIRE 624 -208 592 -208
WIRE 752 -176 592 -176
WIRE 896 -176 752 -176
WIRE 1040 -176 896 -176
WIRE 752 -144 752 -176
WIRE -400 -128 -400 -176
WIRE -400 -128 -448 -128
WIRE -192 -128 -400 -128
WIRE 48 -128 -112 -128
WIRE 192 -128 64 -128
WIRE 448 -128 256 -128
WIRE 896 -80 896 -176
WIRE 1040 -64 1040 -176
WIRE -272 -32 -272 -176
WIRE -272 -32 -448 -32
WIRE -192 -32 -272 -32
WIRE 16 -32 -112 -32
WIRE 624 -32 624 -208
WIRE 752 -32 752 -80
WIRE 752 -32 624 -32
WIRE 64 -16 64 -128
WIRE 80 -16 64 -16
WIRE 560 0 480 0
WIRE 752 0 752 -32
WIRE -16 16 -96 16
WIRE 48 16 48 -128
WIRE 80 16 48 16
WIRE 560 16 560 0
WIRE -96 32 -96 16
WIRE 16 48 16 -32
WIRE 80 48 16 48
WIRE 544 64 512 64
WIRE -16 80 -16 16
WIRE 80 80 -16 80
WIRE 480 80 480 0
WIRE 480 80 368 80
WIRE -352 112 -448 112
WIRE -96 112 -96 96
WIRE -96 112 -272 112
WIRE 80 112 -96 112
WIRE 512 112 512 64
WIRE 512 112 368 112
WIRE 752 112 752 80
WIRE 752 112 656 112
WIRE 896 112 896 0
WIRE 896 112 752 112
WIRE 1040 112 1040 0
WIRE 1040 112 896 112
WIRE 80 144 -96 144
WIRE 592 144 592 -176
WIRE 592 144 368 144
WIRE 896 144 752 144
WIRE 1040 144 1040 112
WIRE -96 176 -96 144
WIRE -96 176 -544 176
WIRE 80 176 -32 176
WIRE 624 176 624 -32
WIRE 624 176 368 176
WIRE -448 208 -496 208
WIRE 80 208 0 208
WIRE 656 208 656 112
WIRE 656 208 368 208
WIRE -448 240 -448 208
WIRE 80 240 32 240
WIRE 400 240 368 240
WIRE 640 240 400 240
WIRE 752 240 752 224
WIRE 752 240 720 240
WIRE 896 240 896 144
WIRE 944 240 896 240
WIRE 1040 240 1008 240
WIRE 80 272 64 272
WIRE 448 272 448 -128
WIRE 448 272 368 272
WIRE 624 272 448 272
WIRE 752 272 752 240
WIRE -448 352 -448 320
WIRE -432 352 -448 352
WIRE -320 352 -352 352
WIRE -32 352 -32 176
WIRE -32 352 -320 352
WIRE -320 384 -320 352
WIRE 624 384 624 272
WIRE 752 384 752 352
WIRE 752 384 624 384
WIRE -320 480 -320 448
WIRE 0 480 0 208
WIRE 0 480 -320 480
WIRE -320 496 -320 480
WIRE -448 512 -448 352
WIRE -320 592 -320 576
WIRE 32 592 32 240
WIRE 32 592 -320 592
WIRE -320 608 -320 592
WIRE -448 720 -448 576
WIRE -320 720 -320 688
WIRE -320 720 -448 720
WIRE 64 720 64 272
WIRE 64 720 -320 720
WIRE -496 752 -496 208
WIRE 400 752 400 240
WIRE 400 752 -496 752
WIRE -544 800 -544 176
WIRE 896 800 896 240
WIRE 896 800 -544 800
WIRE 0 848 0 480
WIRE 1040 848 1040 240
WIRE 1040 848 0 848
FLAG 208 -976 LA
FLAG 208 -896 RA
FLAG -448 -352 Vs
FLAG -448 -128 LA
FLAG -448 -32 RA
FLAG -448 112 RL
FLAG 544 64 Vs
FLAG 560 16 0
FLAG 1040 144 0
FLAG 432 -976 Vs
FLAG 576 -816 0
FLAG 592 -208 Vs
FLAG 240 -880 0
SYMBOL AD8232 224 128 R0
SYMATTR InstName U1
SYMBOL voltage 240 -992 R0
WINDOW 123 24 44 Left 2
WINDOW 39 0 0 Left 0
WINDOW 3 24 44 Left 2
SYMATTR Value2 AC 1 0
SYMATTR Value ""
SYMATTR InstName V1
SYMBOL res -96 -48 R90
WINDOW 0 0 56 VBottom 2
WINDOW 3 32 56 VTop 2
SYMATTR InstName R1
SYMATTR Value 180k
SYMBOL res -96 -144 R90
WINDOW 0 0 56 VBottom 2
WINDOW 3 32 56 VTop 2
SYMATTR InstName R2
SYMATTR Value 180k
SYMBOL res -416 -272 R0
SYMATTR InstName R3
SYMATTR Value 10Meg
SYMBOL res -288 -272 R0
SYMATTR InstName R4
SYMATTR Value 10Meg
SYMBOL cap -112 32 R0
SYMATTR InstName C1
SYMATTR Value 1nF
SYMBOL res -256 96 R90
WINDOW 0 0 56 VBottom 2
WINDOW 3 32 56 VTop 2
SYMATTR InstName R5
SYMATTR Value 360k
SYMBOL res -336 480 R0
SYMATTR InstName R7
SYMATTR Value 100k
SYMBOL res -336 592 R0
SYMATTR InstName R8
SYMATTR Value 1Meg
SYMBOL cap -464 512 R0
SYMATTR InstName C2
SYMATTR Value 1.5nF
SYMBOL cap -336 384 R0
SYMATTR InstName C3
SYMATTR Value 10nF
SYMBOL res -464 224 R0
SYMATTR InstName R9
SYMATTR Value 1Meg
SYMBOL res 736 -16 R0
SYMATTR InstName R11
SYMATTR Value 10Meg
SYMBOL cap 736 -144 R0
SYMATTR InstName C4
SYMATTR Value 0.1µF
SYMBOL res 880 -96 R0
SYMATTR InstName R12
SYMATTR Value 10Meg
SYMBOL cap 1024 -64 R0
SYMATTR InstName C5
SYMATTR Value 0.1µF
SYMBOL res 736 256 R0
SYMATTR InstName R13
SYMATTR Value 10Meg
SYMBOL cap 256 -144 R90
WINDOW 0 0 32 VBottom 2
WINDOW 3 32 32 VTop 2
SYMATTR InstName C6
SYMATTR Value 0.33µF
SYMBOL voltage 464 -960 R0
SYMATTR InstName V3
SYMATTR Value 3.3
SYMBOL cap 560 -944 R0
SYMATTR InstName C7
SYMATTR Value 0.1µF
SYMBOL res 736 224 R90
WINDOW 0 0 56 VBottom 2
WINDOW 3 32 56 VTop 2
SYMATTR InstName R14
SYMATTR Value 10Meg
SYMBOL res 736 128 R0
SYMATTR InstName R15
SYMATTR Value 1.4Meg
SYMBOL cap 1008 224 R90
WINDOW 0 0 32 VBottom 2
WINDOW 3 32 32 VTop 2
SYMATTR InstName C9
SYMATTR Value 0.33µF
SYMBOL res -336 336 R90
WINDOW 0 0 56 VBottom 2
WINDOW 3 32 56 VTop 2
SYMATTR InstName R6
SYMATTR Value 1Meg
TEXT -368 -848 Left 2 ;Transient analysis\nSet voltage source to "PWL file=ecg.txt" and unground RA
TEXT -368 -792 Left 2 ;.tran 10s
TEXT -368 -912 Left 2 !.ac dec 100 0.1 1000
TEXT -368 -968 Left 2 ;AC analysis\nSet voltage source to "AC 1 0" and ground RA
