Version 4
SHEET 1 880 680
WIRE -416 -32 -448 -32
WIRE 144 -32 96 -32
WIRE 144 32 144 -32
WIRE 192 32 144 32
WIRE 336 32 272 32
WIRE 464 32 336 32
WIRE -416 96 -448 96
WIRE 144 96 144 32
WIRE 144 96 96 96
WIRE 336 96 336 32
WIRE 336 240 336 160
FLAG -416 48 0
FLAG -448 -32 sig
FLAG -416 176 0
FLAG -448 96 noise
FLAG 336 240 0
FLAG 464 32 out
FLAG 16 -32 noise
FLAG 16 96 sig
FLAG 144 32 noise+sig
SYMBOL voltage -416 -48 R0
WINDOW 123 0 0 Left 0
WINDOW 39 0 0 Left 0
SYMATTR InstName V1
SYMATTR Value PWL file=ecg.txt
SYMBOL bv -416 80 R0
SYMATTR InstName B1
SYMATTR Value V=white(2e6*time/10)*1e-3
SYMBOL res 288 16 R90
WINDOW 0 0 56 VBottom 2
WINDOW 3 32 56 VTop 2
SYMATTR InstName R1
SYMATTR Value 10k
SYMBOL cap 320 96 R0
SYMATTR InstName C1
SYMATTR Value 100nF
SYMBOL res 112 -48 R90
WINDOW 0 0 56 VBottom 2
WINDOW 3 32 56 VTop 2
SYMATTR InstName R2
SYMATTR Value 1
SYMBOL res 112 80 R90
WINDOW 0 0 56 VBottom 2
WINDOW 3 32 56 VTop 2
SYMATTR InstName R3
SYMATTR Value 1
TEXT 432 -184 Left 2 !.tran 2
