Version 4
SHEET 1 2600 860
WIRE -384 -320 -416 -320
WIRE 112 -304 96 -304
WIRE 112 -288 112 -304
WIRE -384 -240 -384 -320
WIRE 592 -240 560 -240
WIRE 112 -192 112 -208
WIRE 112 -192 96 -192
WIRE 128 -192 112 -192
WIRE 224 -192 208 -192
WIRE -384 -144 -416 -144
WIRE 112 -80 96 -80
WIRE 592 -80 560 -80
WIRE 944 -80 928 -80
WIRE 1248 -80 1232 -80
WIRE 112 -64 112 -80
WIRE 944 -48 928 -48
WIRE 1248 -48 1232 -48
WIRE 944 -16 928 -16
WIRE 1248 -16 1232 -16
WIRE -384 16 -416 16
WIRE 944 16 928 16
WIRE 1248 16 1232 16
WIRE 112 32 112 16
WIRE 112 32 96 32
WIRE 128 32 112 32
WIRE 224 32 208 32
WIRE 944 48 928 48
WIRE 1248 48 1232 48
WIRE 624 64 608 64
WIRE 944 80 928 80
WIRE 1248 80 1232 80
WIRE -384 96 -416 96
WIRE 624 96 624 64
WIRE 624 96 608 96
WIRE 640 96 624 96
WIRE 944 112 928 112
WIRE 1248 112 1232 112
WIRE 944 144 928 144
WIRE 1248 144 1232 144
WIRE 944 176 928 176
WIRE 1248 176 1232 176
WIRE -384 192 -416 192
WIRE 944 208 928 208
WIRE 1248 208 1232 208
WIRE 512 240 496 240
WIRE 592 240 512 240
WIRE 688 240 592 240
WIRE 512 256 512 240
WIRE 592 304 592 240
WIRE 688 304 688 240
WIRE 512 352 512 336
WIRE 512 352 496 352
WIRE 512 368 512 352
WIRE -384 400 -400 400
WIRE -400 448 -400 400
WIRE -400 448 -416 448
WIRE 512 448 512 432
WIRE 512 448 496 448
WIRE 592 448 592 384
WIRE 592 448 512 448
WIRE 688 448 688 368
WIRE 688 448 592 448
WIRE -400 496 -400 448
WIRE -384 496 -400 496
FLAG -416 16 LA
FLAG -384 272 0
FLAG -416 192 noise
FLAG -416 448 sig+noise
FLAG -304 400 sig
FLAG -304 496 noise
FLAG -384 -64 0
FLAG -416 -144 +VS
FLAG -416 -320 -VS
FLAG -384 -240 0
FLAG 928 -48 +IN
FLAG 928 -16 -IN
FLAG 96 -304 RLD
FLAG 224 -192 +IN
FLAG 96 -192 LA
FLAG 96 -80 RLD
FLAG 224 32 -IN
FLAG 96 32 RA
FLAG 928 -80 HPDRIVE
FLAG 928 16 RLDFB
FLAG 928 48 RLD
FLAG 1248 80 -VS
FLAG 1248 112 +VS
FLAG 1248 208 HPSENSE
FLAG 96 336 HPDRIVE
FLAG 160 336 HPSENSE
FLAG 496 352 +VS
FLAG 496 240 REFIN
FLAG 496 448 -VS
FLAG 80 496 IAOUT
FLAG 160 496 HPSENSE
FLAG 1248 144 REFIN
FLAG 96 176 RLD
FLAG 160 176 RLDFB
FLAG 1248 -80 LOD-
FLAG 1248 -48 LOD+
FLAG 1248 -16 SDN_BAR
FLAG 1248 16 AC_DC_BAR
FLAG 1248 48 FR
FLAG 928 80 SW
FLAG 928 112 OPAMP+
FLAG 928 144 REFOUT
FLAG 1248 176 IAOUT
FLAG 928 176 OPAMP-
FLAG 928 208 OUT
FLAG 560 -240 OPAMP+
FLAG 592 -240 IAOUT
FLAG 560 -80 OPAMP-
FLAG 592 -80 OUT
FLAG 608 96 AC_DC_BAR
FLAG 640 96 FR
FLAG 608 64 +VS
FLAG -416 96 RA
SYMBOL voltage -384 0 R0
WINDOW 123 0 0 Left 0
WINDOW 39 0 0 Left 0
SYMATTR InstName V1
SYMATTR Value PWL file=ecg.txt
SYMBOL bv -384 176 R0
SYMATTR InstName B1
SYMATTR Value V=white(2e6*time/10)*1e-3
SYMBOL res -288 384 R90
WINDOW 0 0 56 VBottom 2
WINDOW 3 32 56 VTop 2
SYMATTR InstName R4
SYMATTR Value 100k
SYMBOL res -288 480 R90
WINDOW 0 0 56 VBottom 2
WINDOW 3 32 56 VTop 2
SYMATTR InstName R5
SYMATTR Value 100k
SYMBOL voltage -384 -160 R0
SYMATTR InstName V2
SYMATTR Value 3.3
SYMBOL AD8232 1088 64 R0
SYMATTR InstName U1
SYMBOL res 224 -208 R90
WINDOW 0 0 56 VBottom 2
WINDOW 3 32 56 VTop 2
SYMATTR InstName R1
SYMATTR Value 180k
SYMBOL res 128 -192 R180
WINDOW 0 36 76 Left 2
WINDOW 3 36 40 Left 2
SYMATTR InstName R2
SYMATTR Value 10Meg
SYMBOL res 224 16 R90
WINDOW 0 0 56 VBottom 2
WINDOW 3 32 56 VTop 2
SYMATTR InstName R3
SYMATTR Value 180k
SYMBOL res 128 32 R180
WINDOW 0 36 76 Left 2
WINDOW 3 36 40 Left 2
SYMATTR InstName R6
SYMATTR Value 10Meg
SYMBOL cap 160 320 R90
WINDOW 0 0 32 VBottom 2
WINDOW 3 32 32 VTop 2
SYMATTR InstName C1
SYMATTR Value 0.22µF
SYMBOL res 496 240 R0
SYMATTR InstName R7
SYMATTR Value 10m
SYMBOL cap 496 368 R0
SYMATTR InstName C2
SYMATTR Value 0.1µ
SYMBOL res 576 288 R0
SYMATTR InstName R8
SYMATTR Value 10Meg
SYMBOL cap 672 304 R0
SYMATTR InstName C3
SYMATTR Value 0.1µ
SYMBOL res 176 480 R90
WINDOW 0 0 56 VBottom 2
WINDOW 3 32 56 VTop 2
SYMATTR InstName R9
SYMATTR Value 10Meg
SYMBOL cap 160 160 R90
WINDOW 0 0 32 VBottom 2
WINDOW 3 32 32 VTop 2
SYMATTR InstName C4
SYMATTR Value 1nF
TEXT 1040 -272 Left 2 !.tran 10s
TEXT 1672 -280 Left 2 ;https://groups.io/g/LTspice/topic/unable_to_simulate_ad8232/79199405?p=
