Version 4
SHEET 1 880 680
WIRE -416 -160 -448 -160
WIRE -272 -160 -304 -160
WIRE -272 -80 -272 -160
WIRE -416 -32 -448 -32
WIRE 192 -16 112 -16
WIRE 160 16 112 16
WIRE 192 48 192 -16
WIRE 128 64 112 64
WIRE -416 96 -448 96
WIRE 320 96 256 96
WIRE 448 96 320 96
WIRE 592 96 448 96
WIRE 128 128 112 128
WIRE 160 176 112 176
WIRE 192 176 192 160
WIRE 224 176 224 128
WIRE 320 176 224 176
WIRE 448 176 448 160
WIRE 448 176 320 176
WIRE -464 256 -480 256
WIRE -480 304 -480 256
WIRE -480 304 -496 304
WIRE -480 352 -480 304
WIRE -464 352 -480 352
FLAG -416 48 0
FLAG -448 -32 sig
FLAG -416 176 0
FLAG -448 96 noise
FLAG -496 304 sig+noise
FLAG -384 256 sig
FLAG -384 352 noise
FLAG 112 64 sig+noise
FLAG 112 128 noise
FLAG -416 -80 0
FLAG -448 -160 Vs+
FLAG 112 16 Vs+
FLAG 112 176 Vs-
FLAG 112 -16 Vs-
FLAG 192 176 0
FLAG 320 256 0
FLAG 592 96 out
FLAG -304 -160 Vs-
FLAG -272 -80 0
SYMBOL voltage -416 -48 R0
WINDOW 123 0 0 Left 0
WINDOW 39 0 0 Left 0
SYMATTR InstName V1
SYMATTR Value PWL file=ecg.txt
SYMBOL bv -416 80 R0
SYMATTR InstName B1
SYMATTR Value V=white(2e6*time/10)*1e-3
SYMBOL res -368 240 R90
WINDOW 0 0 56 VBottom 2
WINDOW 3 32 56 VTop 2
SYMATTR InstName R4
SYMATTR Value 1
SYMBOL res -368 336 R90
WINDOW 0 0 56 VBottom 2
WINDOW 3 32 56 VTop 2
SYMATTR InstName R5
SYMATTR Value 1
SYMBOL OpAmps\\AD8237 192 96 R0
SYMATTR InstName U1
SYMBOL voltage -416 -176 R0
SYMATTR InstName V2
SYMATTR Value 3.3
SYMBOL res 304 80 R0
SYMATTR InstName R1
SYMATTR Value 160k
SYMBOL res 304 160 R0
SYMATTR InstName R2
SYMATTR Value 1k
SYMBOL cap 432 96 R0
SYMATTR InstName C1
SYMATTR Value 47nF
TEXT 8 -152 Left 2 !.tran 16
